/*--------------------------------*- C++ -*----------------------------------*\
| =========                 |                                                 |
| \\      /  F ield         | OpenFOAM: The Open Source CFD Toolbox           |
|  \\    /   O peration     | Version:  v1906                                 |
|   \\  /    A nd           | Web:      www.OpenFOAM.com                      |
|    \\/     M anipulation  |                                                 |
\*---------------------------------------------------------------------------*/
FoamFile
{
    version     2.0;
    format      ascii;
    class       dictionary;
    location    "constant";
    object      radiationProperties;
}
// * * * * * * * * * * * * * * * * * * * * * * * * * * * * * * * * * * * * * //

radiation       on;

radiationModel  solarLoad;

useSolarLoad true;
solarLoadCoeffs
{
    sunDirectionModel   sunDirTracking;

        sunTrackingUpdateInterval 400; // Time interval to update Sun position
        localStandardMeridian     5;       // GMT offset (hours)
        startDay                  196;     // day of the year
        startTime                 5.5;      // time of the day (hours decimal)
        longitude                 73.084488;  // longitude (degrees)
        latitude                  33.738045;  // latitude (degrees)
        gridUp                    (0 0 1); // grid orientation
        gridEast                  (1 0 0);


    sunLoadModel    fairWeather;

        // Fair weather conditions model constants
        // Calculate beta from the Solar calculator or input
        
        groundReflectivity 0;
        skyCloudCoverFraction       0;
        A       1000;   // Apparent solar irradiation at air mass m = 0
        B       0.142; // Atmospheric extinction coefficient
        C       0.058; // Solar diffusivity constant
        //beta    45;  // Solar altitude (in degrees) above the horizontal


    // see solarCalculator.H for other model examples and details


    // Energy spectrum
    spectralDistribution (1);


    // Radiative flux coupling flags
    solidCoupled    true;  //Couple through qr the solid regions (default true)
    wallCoupled     true; //Couple through qr wall patches (default false)

    
    useReflectedRays true;
    reflecting
    {
        nPhi        10;
        nTheta      10;
    }

    absorptionEmissionModel none;
    scatterModel            none;
    sootModel               none;
}



// Number of flow iterations per radiation iteration
solverFreq 50;

absorptionEmissionModel none;

scatterModel    none;

sootModel       none;


// ************************************************************************* //
